*SPEF "IEEE 1481-1998"
*DESIGN "iir"
*DATE "Sun Nov 15 12:28:42 2020"
*VENDOR "Cadence Design Systems, Inc."
*PROGRAM "Innovus"
*VERSION "17.11-s080_1"
*DESIGN_FLOW "COUPLING C" "PIN_CAP NONE" "NAME_SCOPE LOCAL"
*DIVIDER /
*DELIMITER :
*BUS_DELIMITER []
*T_UNIT 1 NS
*C_UNIT 1 PF
*R_UNIT 1 OHM
*L_UNIT 1 HENRY

// MMMC spef file for corner 'my_rc'

*NAME_MAP

*1 clk
*2 rst_n
*3 vin
*4 din[11]
*5 din[10]
*6 din[9]
*7 din[8]
*8 din[7]
*9 din[6]
*10 din[5]
*11 din[4]
*12 din[3]
*13 din[2]
*14 din[1]
*15 din[0]
*16 b0[11]
*17 b0[10]
*18 b0[9]
*19 b0[8]
*20 b0[7]
*21 b0[6]
*22 b0[5]
*23 b0[4]
*24 b0[3]
*25 b0[2]
*26 b0[1]
*27 b0[0]
*28 b1[11]
*29 b1[10]
*30 b1[9]
*31 b1[8]
*32 b1[7]
*33 b1[6]
*34 b1[5]
*35 b1[4]
*36 b1[3]
*37 b1[2]
*38 b1[1]
*39 b1[0]
*40 b2[11]
*41 b2[10]
*42 b2[9]
*43 b2[8]
*44 b2[7]
*45 b2[6]
*46 b2[5]
*47 b2[4]
*48 b2[3]
*49 b2[2]
*50 b2[1]
*51 b2[0]
*52 a1[11]
*53 a1[10]
*54 a1[9]
*55 a1[8]
*56 a1[7]
*57 a1[6]
*58 a1[5]
*59 a1[4]
*60 a1[3]
*61 a1[2]
*62 a1[1]
*63 a1[0]
*64 a2[11]
*65 a2[10]
*66 a2[9]
*67 a2[8]
*68 a2[7]
*69 a2[6]
*70 a2[5]
*71 a2[4]
*72 a2[3]
*73 a2[2]
*74 a2[1]
*75 a2[0]
*76 vout
*77 dout[11]
*78 dout[10]
*79 dout[9]
*80 dout[8]
*81 dout[7]
*82 dout[6]
*83 dout[5]
*84 dout[4]
*85 dout[3]
*86 dout[2]
*87 dout[1]
*88 dout[0]
*89 FE_OFN5_vin
*90 FE_OFN4_vin
*91 FE_OFN3_vin
*92 FE_OFN2_rst_n
*93 FE_OFN1_rst_n
*94 FE_OFN0_sw_24
*95 FE_DBTN1_sw_12
*96 FE_DBTN0_sw_0
*97 vin_s_0__0_
*98 x_reg_n36
*99 x_reg_n35
*100 x_reg_n34
*101 x_reg_n33
*102 x_reg_n32
*103 x_reg_n31
*104 x_reg_n30
*105 x_reg_n29
*106 x_reg_n28
*107 x_reg_n27
*108 x_reg_n26
*109 x_reg_n25
*110 x_reg_n24
*111 x_reg_n23
*112 x_reg_n22
*113 x_reg_n21
*114 x_reg_n20
*115 x_reg_n19
*116 x_reg_n18
*117 x_reg_n17
*118 x_reg_n16
*119 x_reg_n15
*120 x_reg_n14
*121 x_reg_n13
*122 x_reg_n12
*123 x_reg_n11
*124 x_reg_n10
*125 x_reg_n9
*126 x_reg_n8
*127 x_reg_n7
*128 x_reg_n6
*129 x_reg_n5
*130 x_reg_n4
*131 x_reg_n3
*132 x_reg_n2
*133 x_reg_n1
*134 vin_reg_n3
*135 vin_reg_n2
*136 vin_reg_n1
*137 ai_reg_0_n75
*138 ai_reg_0_n74
*139 ai_reg_0_n73
*140 ai_reg_0_n72
*141 ai_reg_0_n71
*142 ai_reg_0_n70
*143 ai_reg_0_n69
*144 ai_reg_0_n68
*145 ai_reg_0_n67
*146 ai_reg_0_n66
*147 ai_reg_0_n65
*148 ai_reg_0_n64
*149 ai_reg_0_n63
*150 ai_reg_0_n62
*151 ai_reg_0_n61
*152 ai_reg_0_n60
*153 ai_reg_0_n59
*154 ai_reg_0_n58
*155 ai_reg_0_n57
*156 ai_reg_0_n56
*157 ai_reg_0_n55
*158 ai_reg_0_n54
*159 ai_reg_0_n53
*160 ai_reg_0_n52
*161 ai_reg_0_n51
*162 ai_reg_0_n50
*163 ai_reg_0_n49
*164 ai_reg_0_n48
*165 ai_reg_0_n47
*166 ai_reg_0_n46
*167 ai_reg_0_n45
*168 ai_reg_0_n44
*169 ai_reg_0_n43
*170 ai_reg_0_n42
*171 ai_reg_0_n41
*172 ai_reg_0_n40
*173 bi_reg_0_n75
*174 bi_reg_0_n74
*175 bi_reg_0_n73
*176 bi_reg_0_n72
*177 bi_reg_0_n71
*178 bi_reg_0_n70
*179 bi_reg_0_n69
*180 bi_reg_0_n68
*181 bi_reg_0_n67
*182 bi_reg_0_n66
*183 bi_reg_0_n65
*184 bi_reg_0_n64
*185 bi_reg_0_n63
*186 bi_reg_0_n62
*187 bi_reg_0_n61
*188 bi_reg_0_n60
*189 bi_reg_0_n59
*190 bi_reg_0_n58
*191 bi_reg_0_n57
*192 bi_reg_0_n56
*193 bi_reg_0_n55
*194 bi_reg_0_n54
*195 bi_reg_0_n53
*196 bi_reg_0_n52
*197 bi_reg_0_n51
*198 bi_reg_0_n50
*199 bi_reg_0_n49
*200 bi_reg_0_n48
*201 bi_reg_0_n47
*202 bi_reg_0_n46
*203 bi_reg_0_n45
*204 bi_reg_0_n44
*205 bi_reg_0_n43
*206 bi_reg_0_n42
*207 bi_reg_0_n41
*208 bi_reg_0_n40
*209 swi_reg_0_n75
*210 swi_reg_0_n74
*211 swi_reg_0_n73
*212 swi_reg_0_n72
*213 swi_reg_0_n71
*214 swi_reg_0_n70
*215 swi_reg_0_n69
*216 swi_reg_0_n68
*217 swi_reg_0_n67
*218 swi_reg_0_n66
*219 swi_reg_0_n65
*220 swi_reg_0_n64
*221 swi_reg_0_n63
*222 swi_reg_0_n62
*223 swi_reg_0_n61
*224 swi_reg_0_n60
*225 swi_reg_0_n59
*226 swi_reg_0_n58
*227 swi_reg_0_n57
*228 swi_reg_0_n56
*229 swi_reg_0_n55
*230 swi_reg_0_n54
*231 swi_reg_0_n53
*232 swi_reg_0_n52
*233 swi_reg_0_n51
*234 swi_reg_0_n50
*235 swi_reg_0_n49
*236 swi_reg_0_n48
*237 swi_reg_0_n47
*238 swi_reg_0_n46
*239 swi_reg_0_n45
*240 swi_reg_0_n44
*241 swi_reg_0_n43
*242 swi_reg_0_n42
*243 swi_reg_0_n41
*244 swi_reg_0_n40
*245 vini_reg_0_n5
*246 vini_reg_0_n4
*247 ai_reg_1_n75
*248 ai_reg_1_n74
*249 ai_reg_1_n73
*250 ai_reg_1_n72
*251 ai_reg_1_n71
*252 ai_reg_1_n70
*253 ai_reg_1_n69
*254 ai_reg_1_n68
*255 ai_reg_1_n67
*256 ai_reg_1_n66
*257 ai_reg_1_n65
*258 ai_reg_1_n64
*259 ai_reg_1_n63
*260 ai_reg_1_n62
*261 ai_reg_1_n61
*262 ai_reg_1_n60
*263 ai_reg_1_n59
*264 ai_reg_1_n58
*265 ai_reg_1_n57
*266 ai_reg_1_n56
*267 ai_reg_1_n55
*268 ai_reg_1_n54
*269 ai_reg_1_n53
*270 ai_reg_1_n52
*271 ai_reg_1_n51
*272 ai_reg_1_n50
*273 ai_reg_1_n49
*274 ai_reg_1_n48
*275 ai_reg_1_n47
*276 ai_reg_1_n46
*277 ai_reg_1_n45
*278 ai_reg_1_n44
*279 ai_reg_1_n43
*280 ai_reg_1_n42
*281 ai_reg_1_n41
*282 ai_reg_1_n40
*283 bi_reg_1_n75
*284 bi_reg_1_n74
*285 bi_reg_1_n73
*286 bi_reg_1_n72
*287 bi_reg_1_n71
*288 bi_reg_1_n70
*289 bi_reg_1_n69
*290 bi_reg_1_n68
*291 bi_reg_1_n67
*292 bi_reg_1_n66
*293 bi_reg_1_n65
*294 bi_reg_1_n64
*295 bi_reg_1_n63
*296 bi_reg_1_n62
*297 bi_reg_1_n61
*298 bi_reg_1_n60
*299 bi_reg_1_n59
*300 bi_reg_1_n58
*301 bi_reg_1_n57
*302 bi_reg_1_n56
*303 bi_reg_1_n55
*304 bi_reg_1_n54
*305 bi_reg_1_n53
*306 bi_reg_1_n52
*307 bi_reg_1_n51
*308 bi_reg_1_n50
*309 bi_reg_1_n49
*310 bi_reg_1_n48
*311 bi_reg_1_n47
*312 bi_reg_1_n46
*313 bi_reg_1_n45
*314 bi_reg_1_n44
*315 bi_reg_1_n43
*316 bi_reg_1_n42
*317 bi_reg_1_n41
*318 bi_reg_1_n40
*319 swi_reg_1_n75
*320 swi_reg_1_n74
*321 swi_reg_1_n73
*322 swi_reg_1_n72
*323 swi_reg_1_n71
*324 swi_reg_1_n70
*325 swi_reg_1_n69
*326 swi_reg_1_n68
*327 swi_reg_1_n67
*328 swi_reg_1_n66
*329 swi_reg_1_n65
*330 swi_reg_1_n64
*331 swi_reg_1_n63
*332 swi_reg_1_n62
*333 swi_reg_1_n61
*334 swi_reg_1_n60
*335 swi_reg_1_n59
*336 swi_reg_1_n58
*337 swi_reg_1_n57
*338 swi_reg_1_n56
*339 swi_reg_1_n55
*340 swi_reg_1_n54
*341 swi_reg_1_n53
*342 swi_reg_1_n52
*343 swi_reg_1_n51
*344 swi_reg_1_n50
*345 swi_reg_1_n49
*346 swi_reg_1_n48
*347 swi_reg_1_n47
*348 swi_reg_1_n46
*349 swi_reg_1_n45
*350 swi_reg_1_n44
*351 swi_reg_1_n43
*352 swi_reg_1_n42
*353 swi_reg_1_n41
*354 swi_reg_1_n40
*355 vini_reg_1_n6
*356 vini_reg_1_n5
*357 vini_reg_1_n4
*358 vini_reg_1_q_0_
*359 b2_reg_n75
*360 b2_reg_n74
*361 b2_reg_n73
*362 b2_reg_n72
*363 b2_reg_n71
*364 b2_reg_n70
*365 b2_reg_n69
*366 b2_reg_n68
*367 b2_reg_n67
*368 b2_reg_n66
*369 b2_reg_n65
*370 b2_reg_n64
*371 b2_reg_n63
*372 b2_reg_n62
*373 b2_reg_n61
*374 b2_reg_n60
*375 b2_reg_n59
*376 b2_reg_n58
*377 b2_reg_n57
*378 b2_reg_n56
*379 b2_reg_n55
*380 b2_reg_n54
*381 b2_reg_n53
*382 b2_reg_n52
*383 b2_reg_n51
*384 b2_reg_n50
*385 b2_reg_n49
*386 b2_reg_n48
*387 b2_reg_n47
*388 b2_reg_n46
*389 b2_reg_n45
*390 b2_reg_n44
*391 b2_reg_n43
*392 b2_reg_n42
*393 b2_reg_n41
*394 b2_reg_n40
*395 mul_fb_i_0_mult_22_n545
*396 mul_fb_i_0_mult_22_n544
*397 mul_fb_i_0_mult_22_n543
*398 mul_fb_i_0_mult_22_n542
*399 mul_fb_i_0_mult_22_n541
*400 mul_fb_i_0_mult_22_n540
*401 mul_fb_i_0_mult_22_n539
*402 mul_fb_i_0_mult_22_n538
*403 mul_fb_i_0_mult_22_n537
*404 mul_fb_i_0_mult_22_n536
*405 mul_fb_i_0_mult_22_n535
*406 mul_fb_i_0_mult_22_n534
*407 mul_fb_i_0_mult_22_n533
*408 mul_fb_i_0_mult_22_n532
*409 mul_fb_i_0_mult_22_n531
*410 mul_fb_i_0_mult_22_n530
*411 mul_fb_i_0_mult_22_n529
*412 mul_fb_i_0_mult_22_n528
*413 mul_fb_i_0_mult_22_n527
*414 mul_fb_i_0_mult_22_n526
*415 mul_fb_i_0_mult_22_n525
*416 mul_fb_i_0_mult_22_n524
*417 mul_fb_i_0_mult_22_n523
*418 mul_fb_i_0_mult_22_n522
*419 mul_fb_i_0_mult_22_n521
*420 mul_fb_i_0_mult_22_n520
*421 mul_fb_i_0_mult_22_n519
*422 mul_fb_i_0_mult_22_n518
*423 mul_fb_i_0_mult_22_n517
*424 mul_fb_i_0_mult_22_n516
*425 mul_fb_i_0_mult_22_n515
*426 mul_fb_i_0_mult_22_n514
*427 mul_fb_i_0_mult_22_n513
*428 mul_fb_i_0_mult_22_n512
*429 mul_fb_i_0_mult_22_n511
*430 mul_fb_i_0_mult_22_n510
*431 mul_fb_i_0_mult_22_n509
*432 mul_fb_i_0_mult_22_n508
*433 mul_fb_i_0_mult_22_n507
*434 mul_fb_i_0_mult_22_n506
*435 mul_fb_i_0_mult_22_n505
*436 mul_fb_i_0_mult_22_n504
*437 mul_fb_i_0_mult_22_n503
*438 mul_fb_i_0_mult_22_n502
*439 mul_fb_i_0_mult_22_n501
*440 mul_fb_i_0_mult_22_n500
*441 mul_fb_i_0_mult_22_n499
*442 mul_fb_i_0_mult_22_n498
*443 mul_fb_i_0_mult_22_n497
*444 mul_fb_i_0_mult_22_n496
*445 mul_fb_i_0_mult_22_n495
*446 mul_fb_i_0_mult_22_n494
*447 mul_fb_i_0_mult_22_n493
*448 mul_fb_i_0_mult_22_n492
*449 mul_fb_i_0_mult_22_n491
*450 mul_fb_i_0_mult_22_n490
*451 mul_fb_i_0_mult_22_n489
*452 mul_fb_i_0_mult_22_n488
*453 mul_fb_i_0_mult_22_n487
*454 mul_fb_i_0_mult_22_n486
*455 mul_fb_i_0_mult_22_n485
*456 mul_fb_i_0_mult_22_n484
*457 mul_fb_i_0_mult_22_n483
*458 mul_fb_i_0_mult_22_n482
*459 mul_fb_i_0_mult_22_n481
*460 mul_fb_i_0_mult_22_n480
*461 mul_fb_i_0_mult_22_n479
*462 mul_fb_i_0_mult_22_n478
*463 mul_fb_i_0_mult_22_n477
*464 mul_fb_i_0_mult_22_n476
*465 mul_fb_i_0_mult_22_n475
*466 mul_fb_i_0_mult_22_n474
*467 mul_fb_i_0_mult_22_n473
*468 mul_fb_i_0_mult_22_n472
*469 mul_fb_i_0_mult_22_n471
*470 mul_fb_i_0_mult_22_n470
*471 mul_fb_i_0_mult_22_n469
*472 mul_fb_i_0_mult_22_n468
*473 mul_fb_i_0_mult_22_n467
*474 mul_fb_i_0_mult_22_n466
*475 mul_fb_i_0_mult_22_n465
*476 mul_fb_i_0_mult_22_n464
*477 mul_fb_i_0_mult_22_n463
*478 mul_fb_i_0_mult_22_n462
*479 mul_fb_i_0_mult_22_n461
*480 mul_fb_i_0_mult_22_n460
*481 mul_fb_i_0_mult_22_n459
*482 mul_fb_i_0_mult_22_n458
*483 mul_fb_i_0_mult_22_n457
*484 mul_fb_i_0_mult_22_n456
*485 mul_fb_i_0_mult_22_n455
*486 mul_fb_i_0_mult_22_n454
*487 mul_fb_i_0_mult_22_n453
*488 mul_fb_i_0_mult_22_n452
*489 mul_fb_i_0_mult_22_n451
*490 mul_fb_i_0_mult_22_n450
*491 mul_fb_i_0_mult_22_n449
*492 mul_fb_i_0_mult_22_n448
*493 mul_fb_i_0_mult_22_n447
*494 mul_fb_i_0_mult_22_n446
*495 mul_fb_i_0_mult_22_n445
*496 mul_fb_i_0_mult_22_n444
*497 mul_fb_i_0_mult_22_n443
*498 mul_fb_i_0_mult_22_n442
*499 mul_fb_i_0_mult_22_n441
*500 mul_fb_i_0_mult_22_n440
*501 mul_fb_i_0_mult_22_n439
*502 mul_fb_i_0_mult_22_n438
*503 mul_fb_i_0_mult_22_n437
*504 mul_fb_i_0_mult_22_n436
*505 mul_fb_i_0_mult_22_n435
*506 mul_fb_i_0_mult_22_n433
*507 mul_fb_i_0_mult_22_n432
*508 mul_fb_i_0_mult_22_n431
*509 mul_fb_i_0_mult_22_n430
*510 mul_fb_i_0_mult_22_n429
*511 mul_fb_i_0_mult_22_n428
*512 mul_fb_i_0_mult_22_n427
*513 mul_fb_i_0_mult_22_n426
*514 mul_fb_i_0_mult_22_n425
*515 mul_fb_i_0_mult_22_n424
*516 mul_fb_i_0_mult_22_n423
*517 mul_fb_i_0_mult_22_n422
*518 mul_fb_i_0_mult_22_n421
*519 mul_fb_i_0_mult_22_n420
*520 mul_fb_i_0_mult_22_n419
*521 mul_fb_i_0_mult_22_n418
*522 mul_fb_i_0_mult_22_n417
*523 mul_fb_i_0_mult_22_n416
*524 mul_fb_i_0_mult_22_n415
*525 mul_fb_i_0_mult_22_n414
*526 mul_fb_i_0_mult_22_n413
*527 mul_fb_i_0_mult_22_n412
*528 mul_fb_i_0_mult_22_n411
*529 mul_fb_i_0_mult_22_n410
*530 mul_fb_i_0_mult_22_n409
*531 mul_fb_i_0_mult_22_n408
*532 mul_fb_i_0_mult_22_n407
*533 mul_fb_i_0_mult_22_n406
*534 mul_fb_i_0_mult_22_n405
*535 mul_fb_i_0_mult_22_n403
*536 mul_fb_i_0_mult_22_n402
*537 mul_fb_i_0_mult_22_n401
*538 mul_fb_i_0_mult_22_n227
*539 mul_fb_i_0_mult_22_n226
*540 mul_fb_i_0_mult_22_n225
*541 mul_fb_i_0_mult_22_n224
*542 mul_fb_i_0_mult_22_n223
*543 mul_fb_i_0_mult_22_n222
*544 mul_fb_i_0_mult_22_n221
*545 mul_fb_i_0_mult_22_n220
*546 mul_fb_i_0_mult_22_n219
*547 mul_fb_i_0_mult_22_n216
*548 mul_fb_i_0_mult_22_n215
*549 mul_fb_i_0_mult_22_n214
*550 mul_fb_i_0_mult_22_n213
*551 mul_fb_i_0_mult_22_n212
*552 mul_fb_i_0_mult_22_n211
*553 mul_fb_i_0_mult_22_n210
*554 mul_fb_i_0_mult_22_n209
*555 mul_fb_i_0_mult_22_n208
*556 mul_fb_i_0_mult_22_n207
*557 mul_fb_i_0_mult_22_n205
*558 mul_fb_i_0_mult_22_n204
*559 mul_fb_i_0_mult_22_n203
*560 mul_fb_i_0_mult_22_n202
*561 mul_fb_i_0_mult_22_n201
*562 mul_fb_i_0_mult_22_n200
*563 mul_fb_i_0_mult_22_n199
*564 mul_fb_i_0_mult_22_n198
*565 mul_fb_i_0_mult_22_n196
*566 mul_fb_i_0_mult_22_n195
*567 mul_fb_i_0_mult_22_n193
*568 mul_fb_i_0_mult_22_n192
*569 mul_fb_i_0_mult_22_n191
*570 mul_fb_i_0_mult_22_n190
*571 mul_fb_i_0_mult_22_n189
*572 mul_fb_i_0_mult_22_n188
*573 mul_fb_i_0_mult_22_n187
*574 mul_fb_i_0_mult_22_n186
*575 mul_fb_i_0_mult_22_n185
*576 mul_fb_i_0_mult_22_n184
*577 mul_fb_i_0_mult_22_n183
*578 mul_fb_i_0_mult_22_n181
*579 mul_fb_i_0_mult_22_n180
*580 mul_fb_i_0_mult_22_n179
*581 mul_fb_i_0_mult_22_n178
*582 mul_fb_i_0_mult_22_n176
*583 mul_fb_i_0_mult_22_n175
*584 mul_fb_i_0_mult_22_n174
*585 mul_fb_i_0_mult_22_n173
*586 mul_fb_i_0_mult_22_n172
*587 mul_fb_i_0_mult_22_n171
*588 mul_fb_i_0_mult_22_n169
*589 mul_fb_i_0_mult_22_n168
*590 mul_fb_i_0_mult_22_n167
*591 mul_fb_i_0_mult_22_n166
*592 mul_fb_i_0_mult_22_n165
*593 mul_fb_i_0_mult_22_n164
*594 mul_fb_i_0_mult_22_n163
*595 mul_fb_i_0_mult_22_n162
*596 mul_fb_i_0_mult_22_n161
*597 mul_fb_i_0_mult_22_n160
*598 mul_fb_i_0_mult_22_n159
*599 mul_fb_i_0_mult_22_n155
*600 mul_fb_i_0_mult_22_n154
*601 mul_fb_i_0_mult_22_n153
*602 mul_fb_i_0_mult_22_n152
*603 mul_fb_i_0_mult_22_n134
*604 mul_fb_i_0_mult_22_n133
*605 mul_fb_i_0_mult_22_n132
*606 mul_fb_i_0_mult_22_n131
*607 mul_fb_i_0_mult_22_n130
*608 mul_fb_i_0_mult_22_n129
*609 mul_fb_i_0_mult_22_n128
*610 mul_fb_i_0_mult_22_n127
*611 mul_fb_i_0_mult_22_n126
*612 mul_fb_i_0_mult_22_n125
*613 mul_fb_i_0_mult_22_n124
*614 mul_fb_i_0_mult_22_n123
*615 mul_fb_i_0_mult_22_n122
*616 mul_fb_i_0_mult_22_n121
*617 mul_fb_i_0_mult_22_n120
*618 mul_fb_i_0_mult_22_n119
*619 mul_fb_i_0_mult_22_n118
*620 mul_fb_i_0_mult_22_n117
*621 mul_fb_i_0_mult_22_n116
*622 mul_fb_i_0_mult_22_n115
*623 mul_fb_i_0_mult_22_n114
*624 mul_fb_i_0_mult_22_n113
*625 mul_fb_i_0_mult_22_n112
*626 mul_fb_i_0_mult_22_n111
*627 mul_fb_i_0_mult_22_n110
*628 mul_fb_i_0_mult_22_n109
*629 mul_fb_i_0_mult_22_n108
*630 mul_fb_i_0_mult_22_n107
*631 mul_fb_i_0_mult_22_n106
*632 mul_fb_i_0_mult_22_n105
*633 mul_fb_i_0_mult_22_n104
*634 mul_fb_i_0_mult_22_n103
*635 mul_fb_i_0_mult_22_n102
*636 mul_fb_i_0_mult_22_n101
*637 mul_fb_i_0_mult_22_n100
*638 mul_fb_i_0_mult_22_n99
*639 mul_fb_i_0_mult_22_n98
*640 mul_fb_i_0_mult_22_n97
*641 mul_fb_i_0_mult_22_n96
*642 mul_fb_i_0_mult_22_n95
*643 mul_fb_i_0_mult_22_n94
*644 mul_fb_i_0_mult_22_n93
*645 mul_fb_i_0_mult_22_n92
*646 mul_fb_i_0_mult_22_n91
*647 mul_fb_i_0_mult_22_n90
*648 mul_fb_i_0_mult_22_n89
*649 mul_fb_i_0_mult_22_n88
*650 mul_fb_i_0_mult_22_n87
*651 mul_fb_i_0_mult_22_n86
*652 mul_fb_i_0_mult_22_n85
*653 mul_fb_i_0_mult_22_n84
*654 mul_fb_i_0_mult_22_n83
*655 mul_fb_i_0_mult_22_n82
*656 mul_fb_i_0_mult_22_n81
*657 mul_fb_i_0_mult_22_n80
*658 mul_fb_i_0_mult_22_n79
*659 mul_fb_i_0_mult_22_n78
*660 mul_fb_i_0_mult_22_n77
*661 mul_fb_i_0_mult_22_n76
*662 mul_fb_i_0_mult_22_n75
*663 mul_fb_i_0_mult_22_n73
*664 mul_fb_i_0_mult_22_n72
*665 mul_fb_i_0_mult_22_n71
*666 mul_fb_i_0_mult_22_n70
*667 mul_fb_i_0_mult_22_n69
*668 mul_fb_i_0_mult_22_n68
*669 mul_fb_i_0_mult_22_n67
*670 mul_fb_i_0_mult_22_n66
*671 mul_fb_i_0_mult_22_n65
*672 mul_fb_i_0_mult_22_n64
*673 mul_fb_i_0_mult_22_n63
*674 mul_fb_i_0_mult_22_n62
*675 mul_fb_i_0_mult_22_n61
*676 mul_fb_i_0_mult_22_n60
*677 mul_fb_i_0_mult_22_n59
*678 mul_fb_i_0_mult_22_n58
*679 mul_fb_i_0_mult_22_n57
*680 mul_fb_i_0_mult_22_n55
*681 mul_fb_i_0_mult_22_n54
*682 mul_fb_i_0_mult_22_n53
*683 mul_fb_i_0_mult_22_n52
*684 mul_fb_i_0_mult_22_n51
*685 mul_fb_i_0_mult_22_n50
*686 mul_fb_i_0_mult_22_n49
*687 mul_fb_i_0_mult_22_n48
*688 mul_fb_i_0_mult_22_n47
*689 mul_fb_i_0_mult_22_n46
*690 mul_fb_i_0_mult_22_n45
*691 mul_fb_i_0_mult_22_n44
*692 mul_fb_i_0_mult_22_n43
*693 mul_fb_i_0_mult_22_n41
*694 mul_fb_i_0_mult_22_n40
*695 mul_fb_i_0_mult_22_n39
*696 mul_fb_i_0_mult_22_n38
*697 mul_fb_i_0_mult_22_n37
*698 mul_fb_i_0_mult_22_n36
*699 mul_fb_i_0_mult_22_n35
*700 mul_fb_i_0_mult_22_n34
*701 mul_fb_i_0_mult_22_n33
*702 mul_fb_i_0_mult_22_n31
*703 mul_fb_i_0_mult_22_n30
*704 mul_fb_i_0_mult_22_n29
*705 mul_fb_i_0_mult_22_n28
*706 mul_fb_i_0_mult_22_n27
*707 mul_fb_i_0_mult_22_n25
*708 mul_fb_i_0_mult_22_n13
*709 mul_fb_i_0_mult_22_n12
*710 mul_fb_i_0_mult_22_n11
*711 mul_fb_i_0_mult_22_n10
*712 mul_fb_i_0_mult_22_n9
*713 mul_fb_i_0_mult_22_n8
*714 mul_fb_i_0_mult_22_n7
*715 mul_fb_i_0_mult_22_n6
*716 mul_fb_i_0_mult_22_n5
*717 mul_fb_i_0_mult_22_n4
*718 mul_fb_i_0_mult_22_n3
*719 mul_fb_i_1_mult_22_n545
*720 mul_fb_i_1_mult_22_n544
*721 mul_fb_i_1_mult_22_n543
*722 mul_fb_i_1_mult_22_n542
*723 mul_fb_i_1_mult_22_n541
*724 mul_fb_i_1_mult_22_n540
*725 mul_fb_i_1_mult_22_n539
*726 mul_fb_i_1_mult_22_n538
*727 mul_fb_i_1_mult_22_n537
*728 mul_fb_i_1_mult_22_n536
*729 mul_fb_i_1_mult_22_n535
*730 mul_fb_i_1_mult_22_n534
*731 mul_fb_i_1_mult_22_n533
*732 mul_fb_i_1_mult_22_n532
*733 mul_fb_i_1_mult_22_n531
*734 mul_fb_i_1_mult_22_n530
*735 mul_fb_i_1_mult_22_n529
*736 mul_fb_i_1_mult_22_n528
*737 mul_fb_i_1_mult_22_n527
*738 mul_fb_i_1_mult_22_n526
*739 mul_fb_i_1_mult_22_n525
*740 mul_fb_i_1_mult_22_n524
*741 mul_fb_i_1_mult_22_n523
*742 mul_fb_i_1_mult_22_n522
*743 mul_fb_i_1_mult_22_n521
*744 mul_fb_i_1_mult_22_n520
*745 mul_fb_i_1_mult_22_n519
*746 mul_fb_i_1_mult_22_n518
*747 mul_fb_i_1_mult_22_n517
*748 mul_fb_i_1_mult_22_n516
*749 mul_fb_i_1_mult_22_n515
*750 mul_fb_i_1_mult_22_n514
*751 mul_fb_i_1_mult_22_n513
*752 mul_fb_i_1_mult_22_n512
*753 mul_fb_i_1_mult_22_n511
*754 mul_fb_i_1_mult_22_n510
*755 mul_fb_i_1_mult_22_n509
*756 mul_fb_i_1_mult_22_n508
*757 mul_fb_i_1_mult_22_n507
*758 mul_fb_i_1_mult_22_n506
*759 mul_fb_i_1_mult_22_n505
*760 mul_fb_i_1_mult_22_n504
*761 mul_fb_i_1_mult_22_n503
*762 mul_fb_i_1_mult_22_n502
*763 mul_fb_i_1_mult_22_n501
*764 mul_fb_i_1_mult_22_n500
*765 mul_fb_i_1_mult_22_n499
*766 mul_fb_i_1_mult_22_n498
*767 mul_fb_i_1_mult_22_n497
*768 mul_fb_i_1_mult_22_n496
*769 mul_fb_i_1_mult_22_n495
*770 mul_fb_i_1_mult_22_n494
*771 mul_fb_i_1_mult_22_n493
*772 mul_fb_i_1_mult_22_n492
*773 mul_fb_i_1_mult_22_n491
*774 mul_fb_i_1_mult_22_n490
*775 mul_fb_i_1_mult_22_n489
*776 mul_fb_i_1_mult_22_n488
*777 mul_fb_i_1_mult_22_n487
*778 mul_fb_i_1_mult_22_n486
*779 mul_fb_i_1_mult_22_n485
*780 mul_fb_i_1_mult_22_n484
*781 mul_fb_i_1_mult_22_n483
*782 mul_fb_i_1_mult_22_n482
*783 mul_fb_i_1_mult_22_n481
*784 mul_fb_i_1_mult_22_n480
*785 mul_fb_i_1_mult_22_n479
*786 mul_fb_i_1_mult_22_n478
*787 mul_fb_i_1_mult_22_n477
*788 mul_fb_i_1_mult_22_n476
*789 mul_fb_i_1_mult_22_n475
*790 mul_fb_i_1_mult_22_n474
*791 mul_fb_i_1_mult_22_n473
*792 mul_fb_i_1_mult_22_n472
*793 mul_fb_i_1_mult_22_n471
*794 mul_fb_i_1_mult_22_n470
*795 mul_fb_i_1_mult_22_n469
*796 mul_fb_i_1_mult_22_n468
*797 mul_fb_i_1_mult_22_n467
*798 mul_fb_i_1_mult_22_n466
*799 mul_fb_i_1_mult_22_n465
*800 mul_fb_i_1_mult_22_n464
*801 mul_fb_i_1_mult_22_n463
*802 mul_fb_i_1_mult_22_n462
*803 mul_fb_i_1_mult_22_n461
*804 mul_fb_i_1_mult_22_n460
*805 mul_fb_i_1_mult_22_n459
*806 mul_fb_i_1_mult_22_n458
*807 mul_fb_i_1_mult_22_n457
*808 mul_fb_i_1_mult_22_n456
*809 mul_fb_i_1_mult_22_n455
*810 mul_fb_i_1_mult_22_n454
*811 mul_fb_i_1_mult_22_n453
*812 mul_fb_i_1_mult_22_n452
*813 mul_fb_i_1_mult_22_n451
*814 mul_fb_i_1_mult_22_n450
*815 mul_fb_i_1_mult_22_n449
*816 mul_fb_i_1_mult_22_n448
*817 mul_fb_i_1_mult_22_n447
*818 mul_fb_i_1_mult_22_n446
*819 mul_fb_i_1_mult_22_n445
*820 mul_fb_i_1_mult_22_n444
*821 mul_fb_i_1_mult_22_n443
*822 mul_fb_i_1_mult_22_n442
*823 mul_fb_i_1_mult_22_n441
*824 mul_fb_i_1_mult_22_n440
*825 mul_fb_i_1_mult_22_n439
*826 mul_fb_i_1_mult_22_n438
*827 mul_fb_i_1_mult_22_n437
*828 mul_fb_i_1_mult_22_n436
*829 mul_fb_i_1_mult_22_n435
*830 mul_fb_i_1_mult_22_n433
*831 mul_fb_i_1_mult_22_n432
*832 mul_fb_i_1_mult_22_n431
*833 mul_fb_i_1_mult_22_n430
*834 mul_fb_i_1_mult_22_n429
*835 mul_fb_i_1_mult_22_n428
*836 mul_fb_i_1_mult_22_n427
*837 mul_fb_i_1_mult_22_n426
*838 mul_fb_i_1_mult_22_n425
*839 mul_fb_i_1_mult_22_n424
*840 mul_fb_i_1_mult_22_n423
*841 mul_fb_i_1_mult_22_n422
*842 mul_fb_i_1_mult_22_n421
*843 mul_fb_i_1_mult_22_n420
*844 mul_fb_i_1_mult_22_n419
*845 mul_fb_i_1_mult_22_n418
*846 mul_fb_i_1_mult_22_n417
*847 mul_fb_i_1_mult_22_n416
*848 mul_fb_i_1_mult_22_n415
*849 mul_fb_i_1_mult_22_n414
*850 mul_fb_i_1_mult_22_n413
*851 mul_fb_i_1_mult_22_n412
*852 mul_fb_i_1_mult_22_n411
*853 mul_fb_i_1_mult_22_n410
*854 mul_fb_i_1_mult_22_n409
*855 mul_fb_i_1_mult_22_n408
*856 mul_fb_i_1_mult_22_n407
*857 mul_fb_i_1_mult_22_n406
*858 mul_fb_i_1_mult_22_n405
*859 mul_fb_i_1_mult_22_n403
*860 mul_fb_i_1_mult_22_n402
*861 mul_fb_i_1_mult_22_n401
*862 mul_fb_i_1_mult_22_n227
*863 mul_fb_i_1_mult_22_n226
*864 mul_fb_i_1_mult_22_n225
*865 mul_fb_i_1_mult_22_n224
*866 mul_fb_i_1_mult_22_n223
*867 mul_fb_i_1_mult_22_n222
*868 mul_fb_i_1_mult_22_n221
*869 mul_fb_i_1_mult_22_n220
*870 mul_fb_i_1_mult_22_n219
*871 mul_fb_i_1_mult_22_n216
*872 mul_fb_i_1_mult_22_n215
*873 mul_fb_i_1_mult_22_n214
*874 mul_fb_i_1_mult_22_n213
*875 mul_fb_i_1_mult_22_n212
*876 mul_fb_i_1_mult_22_n211
*877 mul_fb_i_1_mult_22_n210
*878 mul_fb_i_1_mult_22_n209
*879 mul_fb_i_1_mult_22_n208
*880 mul_fb_i_1_mult_22_n207
*881 mul_fb_i_1_mult_22_n205
*882 mul_fb_i_1_mult_22_n204
*883 mul_fb_i_1_mult_22_n203
*884 mul_fb_i_1_mult_22_n202
*885 mul_fb_i_1_mult_22_n201
*886 mul_fb_i_1_mult_22_n200
*887 mul_fb_i_1_mult_22_n199
*888 mul_fb_i_1_mult_22_n198
*889 mul_fb_i_1_mult_22_n196
*890 mul_fb_i_1_mult_22_n195
*891 mul_fb_i_1_mult_22_n193
*892 mul_fb_i_1_mult_22_n192
*893 mul_fb_i_1_mult_22_n191
*894 mul_fb_i_1_mult_22_n190
*895 mul_fb_i_1_mult_22_n189
*896 mul_fb_i_1_mult_22_n188
*897 mul_fb_i_1_mult_22_n187
*898 mul_fb_i_1_mult_22_n186
*899 mul_fb_i_1_mult_22_n185
*900 mul_fb_i_1_mult_22_n184
*901 mul_fb_i_1_mult_22_n183
*902 mul_fb_i_1_mult_22_n181
*903 mul_fb_i_1_mult_22_n180
*904 mul_fb_i_1_mult_22_n179
*905 mul_fb_i_1_mult_22_n178
*906 mul_fb_i_1_mult_22_n176
*907 mul_fb_i_1_mult_22_n175
*908 mul_fb_i_1_mult_22_n174
*909 mul_fb_i_1_mult_22_n173
*910 mul_fb_i_1_mult_22_n172
*911 mul_fb_i_1_mult_22_n171
*912 mul_fb_i_1_mult_22_n169
*913 mul_fb_i_1_mult_22_n168
*914 mul_fb_i_1_mult_22_n167
*915 mul_fb_i_1_mult_22_n166
*916 mul_fb_i_1_mult_22_n165
*917 mul_fb_i_1_mult_22_n164
*918 mul_fb_i_1_mult_22_n163
*919 mul_fb_i_1_mult_22_n162
*920 mul_fb_i_1_mult_22_n161
*921 mul_fb_i_1_mult_22_n160
*922 mul_fb_i_1_mult_22_n159
*923 mul_fb_i_1_mult_22_n155
*924 mul_fb_i_1_mult_22_n154
*925 mul_fb_i_1_mult_22_n153
*926 mul_fb_i_1_mult_22_n152
*927 mul_fb_i_1_mult_22_n134
*928 mul_fb_i_1_mult_22_n133
*929 mul_fb_i_1_mult_22_n132
*930 mul_fb_i_1_mult_22_n131
*931 mul_fb_i_1_mult_22_n130
*932 mul_fb_i_1_mult_22_n129
*933 mul_fb_i_1_mult_22_n128
*934 mul_fb_i_1_mult_22_n127
*935 mul_fb_i_1_mult_22_n126
*936 mul_fb_i_1_mult_22_n125
*937 mul_fb_i_1_mult_22_n124
*938 mul_fb_i_1_mult_22_n123
*939 mul_fb_i_1_mult_22_n122
*940 mul_fb_i_1_mult_22_n121
*941 mul_fb_i_1_mult_22_n120
*942 mul_fb_i_1_mult_22_n119
*943 mul_fb_i_1_mult_22_n118
*944 mul_fb_i_1_mult_22_n117
*945 mul_fb_i_1_mult_22_n116
*946 mul_fb_i_1_mult_22_n115
*947 mul_fb_i_1_mult_22_n114
*948 mul_fb_i_1_mult_22_n113
*949 mul_fb_i_1_mult_22_n112
*950 mul_fb_i_1_mult_22_n111
*951 mul_fb_i_1_mult_22_n110
*952 mul_fb_i_1_mult_22_n109
*953 mul_fb_i_1_mult_22_n108
*954 mul_fb_i_1_mult_22_n107
*955 mul_fb_i_1_mult_22_n106
*956 mul_fb_i_1_mult_22_n105
*957 mul_fb_i_1_mult_22_n104
*958 mul_fb_i_1_mult_22_n103
*959 mul_fb_i_1_mult_22_n102
*960 mul_fb_i_1_mult_22_n101
*961 mul_fb_i_1_mult_22_n100
*962 mul_fb_i_1_mult_22_n99
*963 mul_fb_i_1_mult_22_n98
*964 mul_fb_i_1_mult_22_n97
*965 mul_fb_i_1_mult_22_n96
*966 mul_fb_i_1_mult_22_n95
*967 mul_fb_i_1_mult_22_n94
*968 mul_fb_i_1_mult_22_n93
*969 mul_fb_i_1_mult_22_n92
*970 mul_fb_i_1_mult_22_n91
*971 mul_fb_i_1_mult_22_n90
*972 mul_fb_i_1_mult_22_n89
*973 mul_fb_i_1_mult_22_n88
*974 mul_fb_i_1_mult_22_n87
*975 mul_fb_i_1_mult_22_n86
*976 mul_fb_i_1_mult_22_n85
*977 mul_fb_i_1_mult_22_n84
*978 mul_fb_i_1_mult_22_n83
*979 mul_fb_i_1_mult_22_n82
*980 mul_fb_i_1_mult_22_n81
*981 mul_fb_i_1_mult_22_n80
*982 mul_fb_i_1_mult_22_n79
*983 mul_fb_i_1_mult_22_n78
*984 mul_fb_i_1_mult_22_n77
*985 mul_fb_i_1_mult_22_n76
*986 mul_fb_i_1_mult_22_n75
*987 mul_fb_i_1_mult_22_n73
*988 mul_fb_i_1_mult_22_n72
*989 mul_fb_i_1_mult_22_n71
*990 mul_fb_i_1_mult_22_n70
*991 mul_fb_i_1_mult_22_n69
*992 mul_fb_i_1_mult_22_n68
*993 mul_fb_i_1_mult_22_n67
*994 mul_fb_i_1_mult_22_n66
*995 mul_fb_i_1_mult_22_n65
*996 mul_fb_i_1_mult_22_n64
*997 mul_fb_i_1_mult_22_n63
*998 mul_fb_i_1_mult_22_n62
*999 mul_fb_i_1_mult_22_n61
*1000 mul_fb_i_1_mult_22_n60
*1001 mul_fb_i_1_mult_22_n59
*1002 mul_fb_i_1_mult_22_n58
*1003 mul_fb_i_1_mult_22_n57
*1004 mul_fb_i_1_mult_22_n55
*1005 mul_fb_i_1_mult_22_n54
*1006 mul_fb_i_1_mult_22_n53
*1007 mul_fb_i_1_mult_22_n52
*1008 mul_fb_i_1_mult_22_n51
*1009 mul_fb_i_1_mult_22_n50
*1010 mul_fb_i_1_mult_22_n49
*1011 mul_fb_i_1_mult_22_n48
*1012 mul_fb_i_1_mult_22_n47
*1013 mul_fb_i_1_mult_22_n46
*1014 mul_fb_i_1_mult_22_n45
*1015 mul_fb_i_1_mult_22_n44
*1016 mul_fb_i_1_mult_22_n43
*1017 mul_fb_i_1_mult_22_n41
*1018 mul_fb_i_1_mult_22_n40
*1019 mul_fb_i_1_mult_22_n39
*1020 mul_fb_i_1_mult_22_n38
*1021 mul_fb_i_1_mult_22_n37
*1022 mul_fb_i_1_mult_22_n36
*1023 mul_fb_i_1_mult_22_n35
*1024 mul_fb_i_1_mult_22_n34
*1025 mul_fb_i_1_mult_22_n33
*1026 mul_fb_i_1_mult_22_n31
*1027 mul_fb_i_1_mult_22_n30
*1028 mul_fb_i_1_mult_22_n29
*1029 mul_fb_i_1_mult_22_n28
*1030 mul_fb_i_1_mult_22_n27
*1031 mul_fb_i_1_mult_22_n25
*1032 mul_fb_i_1_mult_22_n13
*1033 mul_fb_i_1_mult_22_n12
*1034 mul_fb_i_1_mult_22_n11
*1035 mul_fb_i_1_mult_22_n10
*1036 mul_fb_i_1_mult_22_n9
*1037 mul_fb_i_1_mult_22_n8
*1038 mul_fb_i_1_mult_22_n7
*1039 mul_fb_i_1_mult_22_n6
*1040 mul_fb_i_1_mult_22_n5
*1041 mul_fb_i_1_mult_22_n4
*1042 mul_fb_i_1_mult_22_n3
*1043 add_fb_add_27_n1
*1044 sub_sw0_sub_26_n13
*1045 sub_sw0_sub_26_n12
*1046 sub_sw0_sub_26_n11
*1047 sub_sw0_sub_26_n10
*1048 sub_sw0_sub_26_n9
*1049 sub_sw0_sub_26_n8
*1050 sub_sw0_sub_26_n7
*1051 sub_sw0_sub_26_n6
*1052 sub_sw0_sub_26_n5
*1053 sub_sw0_sub_26_n4
*1054 sub_sw0_sub_26_n3
*1055 sub_sw0_sub_26_n2
*1056 sub_sw0_sub_26_n1
*1057 mul_ff_i_0_mult_22_n545
*1058 mul_ff_i_0_mult_22_n544
*1059 mul_ff_i_0_mult_22_n543
*1060 mul_ff_i_0_mult_22_n542
*1061 mul_ff_i_0_mult_22_n541
*1062 mul_ff_i_0_mult_22_n540
*1063 mul_ff_i_0_mult_22_n539
*1064 mul_ff_i_0_mult_22_n538
*1065 mul_ff_i_0_mult_22_n537
*1066 mul_ff_i_0_mult_22_n536
*1067 mul_ff_i_0_mult_22_n535
*1068 mul_ff_i_0_mult_22_n534
*1069 mul_ff_i_0_mult_22_n533
*1070 mul_ff_i_0_mult_22_n532
*1071 mul_ff_i_0_mult_22_n531
*1072 mul_ff_i_0_mult_22_n530
*1073 mul_ff_i_0_mult_22_n529
*1074 mul_ff_i_0_mult_22_n528
*1075 mul_ff_i_0_mult_22_n527
*1076 mul_ff_i_0_mult_22_n526
*1077 mul_ff_i_0_mult_22_n525
*1078 mul_ff_i_0_mult_22_n524
*1079 mul_ff_i_0_mult_22_n523
*1080 mul_ff_i_0_mult_22_n522
*1081 mul_ff_i_0_mult_22_n521
*1082 mul_ff_i_0_mult_22_n520
*1083 mul_ff_i_0_mult_22_n519
*1084 mul_ff_i_0_mult_22_n518
*1085 mul_ff_i_0_mult_22_n517
*1086 mul_ff_i_0_mult_22_n516
*1087 mul_ff_i_0_mult_22_n515
*1088 mul_ff_i_0_mult_22_n514
*1089 mul_ff_i_0_mult_22_n513
*1090 mul_ff_i_0_mult_22_n512
*1091 mul_ff_i_0_mult_22_n511
*1092 mul_ff_i_0_mult_22_n510
*1093 mul_ff_i_0_mult_22_n509
*1094 mul_ff_i_0_mult_22_n508
*1095 mul_ff_i_0_mult_22_n507
*1096 mul_ff_i_0_mult_22_n506
*1097 mul_ff_i_0_mult_22_n505
*1098 mul_ff_i_0_mult_22_n504
*1099 mul_ff_i_0_mult_22_n503
*1100 mul_ff_i_0_mult_22_n502
*1101 mul_ff_i_0_mult_22_n501
*1102 mul_ff_i_0_mult_22_n500
*1103 mul_ff_i_0_mult_22_n499
*1104 mul_ff_i_0_mult_22_n498
*1105 mul_ff_i_0_mult_22_n497
*1106 mul_ff_i_0_mult_22_n496
*1107 mul_ff_i_0_mult_22_n495
*1108 mul_ff_i_0_mult_22_n494
*1109 mul_ff_i_0_mult_22_n493
*1110 mul_ff_i_0_mult_22_n492
*1111 mul_ff_i_0_mult_22_n491
*1112 mul_ff_i_0_mult_22_n490
*1113 mul_ff_i_0_mult_22_n489
*1114 mul_ff_i_0_mult_22_n488
*1115 mul_ff_i_0_mult_22_n487
*1116 mul_ff_i_0_mult_22_n486
*1117 mul_ff_i_0_mult_22_n485
*1118 mul_ff_i_0_mult_22_n484
*1119 mul_ff_i_0_mult_22_n483
*1120 mul_ff_i_0_mult_22_n482
*1121 mul_ff_i_0_mult_22_n481
*1122 mul_ff_i_0_mult_22_n480
*1123 mul_ff_i_0_mult_22_n479
*1124 mul_ff_i_0_mult_22_n478
*1125 mul_ff_i_0_mult_22_n477
*1126 mul_ff_i_0_mult_22_n476
*1127 mul_ff_i_0_mult_22_n475
*1128 mul_ff_i_0_mult_22_n474
*1129 mul_ff_i_0_mult_22_n473
*1130 mul_ff_i_0_mult_22_n472
*1131 mul_ff_i_0_mult_22_n471
*1132 mul_ff_i_0_mult_22_n470
*1133 mul_ff_i_0_mult_22_n469
*1134 mul_ff_i_0_mult_22_n468
*1135 mul_ff_i_0_mult_22_n467
*1136 mul_ff_i_0_mult_22_n466
*1137 mul_ff_i_0_mult_22_n465
*1138 mul_ff_i_0_mult_22_n464
*1139 mul_ff_i_0_mult_22_n463
*1140 mul_ff_i_0_mult_22_n462
*1141 mul_ff_i_0_mult_22_n461
*1142 mul_ff_i_0_mult_22_n460
*1143 mul_ff_i_0_mult_22_n459
*1144 mul_ff_i_0_mult_22_n458
*1145 mul_ff_i_0_mult_22_n457
*1146 mul_ff_i_0_mult_22_n456
*1147 mul_ff_i_0_mult_22_n455
*1148 mul_ff_i_0_mult_22_n454
*1149 mul_ff_i_0_mult_22_n453
*1150 mul_ff_i_0_mult_22_n452
*1151 mul_ff_i_0_mult_22_n451
*1152 mul_ff_i_0_mult_22_n450
*1153 mul_ff_i_0_mult_22_n449
*1154 mul_ff_i_0_mult_22_n448
*1155 mul_ff_i_0_mult_22_n447
*1156 mul_ff_i_0_mult_22_n446
*1157 mul_ff_i_0_mult_22_n445
*1158 mul_ff_i_0_mult_22_n444
*1159 mul_ff_i_0_mult_22_n443
*1160 mul_ff_i_0_mult_22_n442
*1161 mul_ff_i_0_mult_22_n441
*1162 mul_ff_i_0_mult_22_n440
*1163 mul_ff_i_0_mult_22_n439
*1164 mul_ff_i_0_mult_22_n438
*1165 mul_ff_i_0_mult_22_n437
*1166 mul_ff_i_0_mult_22_n436
*1167 mul_ff_i_0_mult_22_n435
*1168 mul_ff_i_0_mult_22_n434
*1169 mul_ff_i_0_mult_22_n433
*1170 mul_ff_i_0_mult_22_n432
*1171 mul_ff_i_0_mult_22_n431
*1172 mul_ff_i_0_mult_22_n430
*1173 mul_ff_i_0_mult_22_n429
*1174 mul_ff_i_0_mult_22_n428
*1175 mul_ff_i_0_mult_22_n427
*1176 mul_ff_i_0_mult_22_n426
*1177 mul_ff_i_0_mult_22_n425
*1178 mul_ff_i_0_mult_22_n424
*1179 mul_ff_i_0_mult_22_n423
*1180 mul_ff_i_0_mult_22_n422
*1181 mul_ff_i_0_mult_22_n421
*1182 mul_ff_i_0_mult_22_n420
*1183 mul_ff_i_0_mult_22_n419
*1184 mul_ff_i_0_mult_22_n418
*1185 mul_ff_i_0_mult_22_n417
*1186 mul_ff_i_0_mult_22_n416
*1187 mul_ff_i_0_mult_22_n415
*1188 mul_ff_i_0_mult_22_n414
*1189 mul_ff_i_0_mult_22_n413
*1190 mul_ff_i_0_mult_22_n412
*1191 mul_ff_i_0_mult_22_n411
*1192 mul_ff_i_0_mult_22_n410
*1193 mul_ff_i_0_mult_22_n409
*1194 mul_ff_i_0_mult_22_n408
*1195 mul_ff_i_0_mult_22_n407
*1196 mul_ff_i_0_mult_22_n406
*1197 mul_ff_i_0_mult_22_n405
*1198 mul_ff_i_0_mult_22_n403
*1199 mul_ff_i_0_mult_22_n402
*1200 mul_ff_i_0_mult_22_n401